<?xml version="1.0" encoding="UTF-8"?>
<routes>
    <route id="0">
        <ego_vehicle id="hero">
            <waypoint pitch="360.0" roll="0.0" x="180.6903991699219" y="194.78451538085938" yaw="179.83230590820312" z="0.0" />
            <waypoint pitch="0.0" roll="0.0" x="140.24264526367188" y="195.29856872558594" yaw="179.83230590820312" z="0.0" />
            <waypoint pitch="0.0" roll="0.0" x="88.40200805664062" y="210.57827758789062" yaw="89.99128723144531" z="0.0" />
            <waypoint pitch="0.0" roll="0.0" x="88.41706848144531" y="250.6344299316406" yaw="89.99128723144531" z="0.0" />
        </ego_vehicle>
    </route>
    <route id="1">
        <ego_vehicle id="hero">
            <waypoint pitch="360.0" roll="0.0" x="180.6903991699219" y="194.78451538085938" yaw="179.83230590820312" z="0.0" />
            <waypoint pitch="0.0" roll="0.0" x="140.24264526367188" y="195.29856872558594" yaw="179.83230590820312" z="0.0" />
            <waypoint pitch="0.0" roll="0.0" x="92.3765869140625" y="176.69561767578125" yaw="269.99127197265625" z="0.0" />
            <waypoint pitch="0.0" roll="0.0" x="92.37274169921875" y="145.12017822265625" yaw="269.99127197265625" z="0.0" />
        </ego_vehicle>
    </route>
    <route id="2">
        <ego_vehicle id="hero">
            <waypoint pitch="0.0" roll="0.0" x="92.3765869140625" y="250.6344299316406" yaw="269.99127197265625" z="0.0" />
            <waypoint pitch="0.0" roll="0.0" x="92.3765869140625" y="210.57827758789062" yaw="269.99127197265625" z="0.0" />
            <waypoint pitch="0.0" roll="0.0" x="92.3765869140625" y="176.69561767578125" yaw="269.99127197265625" z="0.0" />
            <waypoint pitch="0.0" roll="0.0" x="92.37274169921875" y="145.12017822265625" yaw="269.99127197265625" z="0.0" />
        </ego_vehicle>
    </route>
    <route id="3">
        <ego_vehicle id="hero">
            <waypoint pitch="0.0" roll="0.0" x="92.3765869140625" y="250.6344299316406" yaw="269.99127197265625" z="0.0" />
            <waypoint pitch="0.0" roll="0.0" x="92.3765869140625" y="210.57827758789062" yaw="269.99127197265625" z="0.0" />
            <waypoint pitch="0.0" roll="0.0" x="132.24264526367188" y="199.08143615722656" yaw="-0.16769057512283325" z="0.0" />
            <waypoint pitch="0.0" roll="0.0" x="162.24264526367188" y="199.08143615722656" yaw="-0.16769057512283325" z="0.0" />
        </ego_vehicle>
    </route>
    <route id="4">
        <ego_vehicle id="hero">
            <waypoint pitch="0.0" roll="0.0" x="88.40200805664062" y="145.12017822265625" yaw="89.99128723144531" z="0.0" />
            <waypoint pitch="0.0" roll="0.0" x="88.40200805664062" y="176.69561767578125" yaw="89.99128723144531" z="0.0" />
            <waypoint pitch="0.0" roll="0.0" x="88.40200805664062" y="210.57827758789062" yaw="89.99128723144531" z="0.0" />
            <waypoint pitch="0.0" roll="0.0" x="88.41706848144531" y="250.6344299316406" yaw="89.99128723144531" z="0.0" />
        </ego_vehicle>
    </route>
    <route id="5">
        <ego_vehicle id="hero">
            <waypoint pitch="0.0" roll="0.0" x="88.40200805664062" y="145.12017822265625" yaw="89.99128723144531" z="0.0" />
            <waypoint pitch="0.0" roll="0.0" x="88.40200805664062" y="176.69561767578125" yaw="89.99128723144531" z="0.0" />
            <waypoint pitch="0.0" roll="0.0" x="132.24264526367188" y="199.08143615722656" yaw="-0.16769057512283325" z="0.0" />
            <waypoint pitch="0.0" roll="0.0" x="162.24264526367188" y="199.08143615722656" yaw="-0.16769057512283325" z="0.0" />
        </ego_vehicle>
    </route>
    <route id="6">
        <ego_vehicle id="hero">
            <waypoint pitch="0.0" roll="0.0" x="88.40200805664062" y="210.57827758789062" yaw="89.99128723144531" z="0.0" />
            <waypoint pitch="0.0" roll="0.0" x="88.41706848144531" y="309.6344299316406" yaw="89.99128723144531" z="0.0" />
            <waypoint pitch="360.0" roll="0.0" x="111.30892944335938" y="330.29559326171875" yaw="0.03514099121094" z="0.0" />
            <waypoint pitch="360.0" roll="0.0" x="204.92605590820312" y="330.31756591796875" yaw="0.03514099121094" z="0.0" />
        </ego_vehicle>
    </route>
    <route id="7">
        <ego_vehicle id="hero">
            <waypoint pitch="0.0" roll="0.0" x="88.40200805664062" y="210.57827758789062" yaw="89.99128723144531" z="0.0" />
            <waypoint pitch="0.0" roll="0.0" x="88.41706848144531" y="309.6344299316406" yaw="89.99128723144531" z="0.0" />
            <waypoint pitch="360.0" roll="0.0" x="75.58748626708984" y="326.3004455566406" yaw="180.0352020263672" z="0.0" />
            <waypoint pitch="360.0" roll="0.0" x="14.334035873413086" y="326.2628173828125" yaw="180.0352020263672" z="0.0" />
        </ego_vehicle>
    </route>
    <route id="8">
        <ego_vehicle id="hero">
            <waypoint pitch="360.0" roll="0.0" x="204.92605590820312" y="326.3004455566406" yaw="180.0352020263672" z="0.0" />
            <waypoint pitch="360.0" roll="0.0" x="111.30892944335938" y="326.3004455566406" yaw="180.0352020263672" z="0.0" />
            <waypoint pitch="360.0" roll="0.0" x="75.58748626708984" y="326.3004455566406" yaw="180.0352020263672" z="0.0" />
            <waypoint pitch="360.0" roll="0.0" x="14.334035873413086" y="326.2628173828125" yaw="180.0352020263672" z="0.0" />
        </ego_vehicle>
    </route>
    <route id="9">
        <ego_vehicle id="hero">
            <waypoint pitch="360.0" roll="0.0" x="204.92605590820312" y="326.3004455566406" yaw="180.0352020263672" z="0.0" />
            <waypoint pitch="360.0" roll="0.0" x="111.30892944335938" y="326.3004455566406" yaw="180.0352020263672" z="0.0" />
            <waypoint pitch="360.0" roll="0.0" x="92.4170913696289" y="309.8084716796875" yaw="269.99127197265625" z="0.0" />
            <waypoint pitch="360.0" roll="0.0" x="92.41275787353516" y="281.28570556640625" yaw="269.99127197265625" z="0.0" />
        </ego_vehicle>
    </route>
    <route id="10">
        <ego_vehicle id="hero">
            <waypoint pitch="360.0" roll="0.0" x="14.334035873413086" y="330.29559326171875" yaw="0.03514099121094" z="0.0" />
            <waypoint pitch="360.0" roll="0.0" x="75.58748626708984" y="330.29559326171875" yaw="0.03514099121094" z="0.0" />
            <waypoint pitch="360.0" roll="0.0" x="111.30892944335938" y="330.29559326171875" yaw="0.03514099121094" z="0.0" />
            <waypoint pitch="360.0" roll="0.0" x="204.92605590820312" y="330.31756591796875" yaw="0.03514099121094" z="0.0" />
        </ego_vehicle>
    </route>
    <route id="11">
        <ego_vehicle id="hero">
            <waypoint pitch="360.0" roll="0.0" x="14.334035873413086" y="330.29559326171875" yaw="0.03514099121094" z="0.0" />
            <waypoint pitch="360.0" roll="0.0" x="75.58748626708984" y="330.29559326171875" yaw="0.03514099121094" z="0.0" />
            <waypoint pitch="360.0" roll="0.0" x="92.4170913696289" y="309.8084716796875" yaw="269.99127197265625" z="0.0" />
            <waypoint pitch="360.0" roll="0.0" x="92.41275787353516" y="281.28570556640625" yaw="269.99127197265625" z="0.0" />
        </ego_vehicle>
    </route>
    <route id="12">
        <ego_vehicle id="hero">
            <waypoint pitch="0.0" roll="0.0" x="214.47857666015625" y="133.2102813720703" yaw="0.1872929185628891" z="0.0" />
            <waypoint pitch="0.0" roll="0.0" x="312.8659362792969" y="133.53189086914062" yaw="0.1872929185628891" z="0.0" />
            <waypoint pitch="0.0" roll="0.0" x="338.7027893066406" y="107.21560668945312" yaw="269.9790954589844" z="0.0" />
            <waypoint pitch="0.0" roll="0.0" x="338.7027893066406" y="80.78645324707031" yaw="269.9790954589844" z="0.0" />
        </ego_vehicle>
    </route>
    <route id="13">
        <ego_vehicle id="hero">
            <waypoint pitch="0.0" roll="0.0" x="214.47857666015625" y="133.2102813720703" yaw="0.1872929185628891" z="0.0" />
            <waypoint pitch="0.0" roll="0.0" x="312.8659362792969" y="133.53189086914062" yaw="0.1872929185628891" z="0.0" />
            <waypoint pitch="0.0" roll="0.0" x="334.67816162109375" y="159.21560668945312" yaw="89.9791030883789" z="0.0" />
            <waypoint pitch="0.0" roll="0.0" x="334.68341064453125" y="173.56646728515625" yaw="89.9791030883789" z="0.0" />
        </ego_vehicle>
    </route>
    <route id="14">
        <ego_vehicle id="hero">
            <waypoint pitch="0.0" roll="0.0" x="334.67816162109375" y="80.78645324707031" yaw="89.9791030883789" z="0.0" />
            <waypoint pitch="0.0" roll="0.0" x="334.67816162109375" y="107.21560668945312" yaw="89.9791030883789" z="0.0" />
            <waypoint pitch="0.0" roll="0.0" x="334.67816162109375" y="159.21560668945312" yaw="89.9791030883789" z="0.0" />
            <waypoint pitch="0.0" roll="0.0" x="334.68341064453125" y="173.56646728515625" yaw="89.9791030883789" z="0.0" />
        </ego_vehicle>
    </route>
    <route id="15">
        <ego_vehicle id="hero">
            <waypoint pitch="0.0" roll="0.0" x="334.67816162109375" y="80.78645324707031" yaw="89.9791030883789" z="0.0" />
            <waypoint pitch="0.0" roll="0.0" x="334.67816162109375" y="107.21560668945312" yaw="89.9791030883789" z="0.0" />
            <waypoint pitch="360.0" roll="0.0" x="312.11029052734375" y="129.5294189453125" yaw="180.18728637695312" z="0.0" />
            <waypoint pitch="360.0" roll="0.0" x="254.0718994140625" y="129.33969116210938" yaw="180.18728637695312" z="0.0" />
        </ego_vehicle>
    </route>
    <route id="16">
        <ego_vehicle id="hero">
            <waypoint pitch="0.0" roll="0.0" x="338.7027893066406" y="173.56646728515625" yaw="269.9790954589844" z="0.0" />
            <waypoint pitch="0.0" roll="0.0" x="338.7027893066406" y="159.21560668945312" yaw="269.9790954589844" z="0.0" />
            <waypoint pitch="0.0" roll="0.0" x="338.7027893066406" y="107.21560668945312" yaw="269.9790954589844" z="0.0" />
            <waypoint pitch="0.0" roll="0.0" x="338.7027893066406" y="80.78645324707031" yaw="269.9790954589844" z="0.0" />
        </ego_vehicle>
    </route>
    <route id="17">
        <ego_vehicle id="hero">
            <waypoint pitch="0.0" roll="0.0" x="338.7027893066406" y="173.56646728515625" yaw="269.9790954589844" z="0.0" />
            <waypoint pitch="0.0" roll="0.0" x="338.7027893066406" y="159.21560668945312" yaw="269.9790954589844" z="0.0" />
            <waypoint pitch="360.0" roll="0.0" x="312.11029052734375" y="129.5294189453125" yaw="180.18728637695312" z="0.0" />
            <waypoint pitch="360.0" roll="0.0" x="254.0718994140625" y="129.33969116210938" yaw="180.18728637695312" z="0.0" />
        </ego_vehicle>
    </route>
    <route id="18">
        <ego_vehicle id="hero">
            <waypoint pitch="0.0" roll="0.0" x="219.9288330078125" y="198.97113037109375" yaw="-0.16769057512283325" z="0.0" />
            <waypoint pitch="0.0" roll="0.0" x="313.20977783203125" y="198.6981201171875" yaw="-0.16769057512283325" z="0.0" />
            <waypoint pitch="360.0" roll="0.0" x="338.6866455078125" y="182.45599365234375" yaw="269.9790954589844" z="0.0" />
            <waypoint pitch="360.0" roll="0.0" x="338.6753234863281" y="151.41770935058594" yaw="269.9790954589844" z="0.0" />
        </ego_vehicle>
    </route>
    <route id="19">
        <ego_vehicle id="hero">
            <waypoint pitch="0.0" roll="0.0" x="219.9288330078125" y="198.97113037109375" yaw="-0.16769057512283325" z="0.0" />
            <waypoint pitch="0.0" roll="0.0" x="313.20977783203125" y="198.6981201171875" yaw="-0.16769057512283325" z="0.0" />
            <waypoint pitch="360.0" roll="0.0" x="334.67816162109375" y="214.45599365234375" yaw="89.9791030883789" z="0.0" />
            <waypoint pitch="360.0" roll="0.0" x="334.68341064453125" y="245.41770935058594" yaw="89.9791030883789" z="0.0" />
        </ego_vehicle>
    </route>
    <route id="20">
        <ego_vehicle id="hero">
            <waypoint pitch="360.0" roll="0.0" x="334.67816162109375" y="151.41770935058594" yaw="89.9791030883789" z="0.0" />
            <waypoint pitch="360.0" roll="0.0" x="334.67816162109375" y="182.45599365234375" yaw="89.9791030883789" z="0.0" />
            <waypoint pitch="360.0" roll="0.0" x="334.67816162109375" y="214.45599365234375" yaw="89.9791030883789" z="0.0" />
            <waypoint pitch="360.0" roll="0.0" x="334.68341064453125" y="245.41770935058594" yaw="89.9791030883789" z="0.0" />
        </ego_vehicle>
    </route>
    <route id="21">
        <ego_vehicle id="hero">
            <waypoint pitch="360.0" roll="0.0" x="334.67816162109375" y="151.41770935058594" yaw="89.9791030883789" z="0.0" />
            <waypoint pitch="360.0" roll="0.0" x="334.67816162109375" y="182.45599365234375" yaw="89.9791030883789" z="0.0" />
            <waypoint pitch="360.0" roll="0.0" x="321.98931884765625" y="194.67242431640625" yaw="179.83230590820312" z="0.0" />
            <waypoint pitch="360.0" roll="0.0" x="283.6903991699219" y="194.78451538085938" yaw="179.83230590820312" z="0.0" />
        </ego_vehicle>
    </route>
    <route id="22">
        <ego_vehicle id="hero">
            <waypoint pitch="360.0" roll="0.0" x="338.6866455078125" y="245.41770935058594" yaw="269.9790954589844" z="0.0" />
            <waypoint pitch="360.0" roll="0.0" x="338.6866455078125" y="214.45599365234375" yaw="269.9790954589844" z="0.0" />
            <waypoint pitch="360.0" roll="0.0" x="338.6866455078125" y="182.45599365234375" yaw="269.9790954589844" z="0.0" />
            <waypoint pitch="360.0" roll="0.0" x="338.6753234863281" y="151.41770935058594" yaw="269.9790954589844" z="0.0" />
        </ego_vehicle>
    </route>
    <route id="23">
        <ego_vehicle id="hero">
            <waypoint pitch="360.0" roll="0.0" x="338.6866455078125" y="245.41770935058594" yaw="269.9790954589844" z="0.0" />
            <waypoint pitch="360.0" roll="0.0" x="338.6866455078125" y="214.45599365234375" yaw="269.9790954589844" z="0.0" />
            <waypoint pitch="360.0" roll="0.0" x="321.98931884765625" y="194.67242431640625" yaw="179.83230590820312" z="0.0" />
            <waypoint pitch="360.0" roll="0.0" x="283.6903991699219" y="194.78451538085938" yaw="179.83230590820312" z="0.0" />
        </ego_vehicle>
    </route>
    <route id="24">
        <ego_vehicle id="hero">
            <waypoint pitch="360.0" roll="0.0" x="157.98867797851562" y="39.896236419677734" yaw="269.930908203125" z="0.0" />
            <waypoint pitch="360.0" roll="0.0" x="157.98867797851562" y="12.585290908813477" yaw="269.930908203125" z="0.0" />
            <waypoint pitch="0.0" roll="0.0" x="141.9262237548828" y="-2.3128161430358887" yaw="-179.970947265625" z="0.0" />
            <waypoint pitch="0.0" roll="0.0" x="109.39694213867188" y="-2.329313039779663" yaw="-179.970947265625" z="0.0" />
        </ego_vehicle>
    </route>
    <route id="25">
        <ego_vehicle id="hero">
            <waypoint pitch="0.0" roll="0.0" x="157.98867797851562" y="39.41703414916992" yaw="269.930908203125" z="0.0" />
            <waypoint pitch="0.0" roll="0.0" x="157.98867797851562" y="12.585290908813477" yaw="269.930908203125" z="0.0" />
            <waypoint pitch="360.0" roll="0.0" x="173.96644592285156" y="1.6836549043655396" yaw="0.029052734375" z="0.0" />
            <waypoint pitch="360.0" roll="0.0" x="205.8623046875" y="1.6704164743423462" yaw="0.029052734375" z="0.0" />
        </ego_vehicle>
    </route>
    <route id="26">
        <ego_vehicle id="hero">
            <waypoint pitch="360.0" roll="0.0" x="109.39694213867188" y="1.6836549043655396" yaw="0.029052734375" z="0.0" />
            <waypoint pitch="360.0" roll="0.0" x="141.9262237548828" y="1.6836549043655396" yaw="0.029052734375" z="0.0" />
            <waypoint pitch="360.0" roll="0.0" x="173.96644592285156" y="1.6836549043655396" yaw="0.029052734375" z="0.0" />
            <waypoint pitch="360.0" roll="0.0" x="205.8623046875" y="1.6704164743423462" yaw="0.029052734375" z="0.0" />
        </ego_vehicle>
    </route>
    <route id="27">
        <ego_vehicle id="hero">
            <waypoint pitch="360.0" roll="0.0" x="109.39694213867188" y="1.6836549043655396" yaw="0.029052734375" z="0.0" />
            <waypoint pitch="360.0" roll="0.0" x="141.9262237548828" y="1.6836549043655396" yaw="0.029052734375" z="0.0" />
            <waypoint pitch="0.0" roll="0.0" x="153.95574951171875" y="12.585290908813477" yaw="89.93091583251953" z="0.0" />
            <waypoint pitch="0.0" roll="0.0" x="153.98809814453125" y="39.41703414916992" yaw="89.93091583251953" z="0.0" />
        </ego_vehicle>
    </route>
    <route id="28">
        <ego_vehicle id="hero">
            <waypoint pitch="0.0" roll="0.0" x="205.8623046875" y="-2.3128161430358887" yaw="-179.970947265625" z="0.0" />
            <waypoint pitch="0.0" roll="0.0" x="173.96644592285156" y="-2.3128161430358887" yaw="-179.970947265625" z="0.0" />
            <waypoint pitch="0.0" roll="0.0" x="141.9262237548828" y="-2.3128161430358887" yaw="-179.970947265625" z="0.0" />
            <waypoint pitch="0.0" roll="0.0" x="109.39694213867188" y="-2.329313039779663" yaw="-179.970947265625" z="0.0" />
        </ego_vehicle>
    </route>
    <route id="29">
        <ego_vehicle id="hero">
            <waypoint pitch="0.0" roll="0.0" x="205.8623046875" y="-2.3128161430358887" yaw="-179.970947265625" z="0.0" />
            <waypoint pitch="0.0" roll="0.0" x="173.96644592285156" y="-2.3128161430358887" yaw="-179.970947265625" z="0.0" />
            <waypoint pitch="0.0" roll="0.0" x="153.95574951171875" y="12.585290908813477" yaw="89.93091583251953" z="0.0" />
            <waypoint pitch="0.0" roll="0.0" x="153.98809814453125" y="39.41703414916992" yaw="89.93091583251953" z="0.0" />
        </ego_vehicle>
    </route>
</routes>