<?xml version="1.0" encoding="UTF-8"?>
<routes>
    <route id="0">
        <ego_vehicle id="hero">
            <waypoint pitch="0.0" roll="0.0" x="148.01194763183594" y="192.091064453125" yaw="-0.046491142362356186" z="0.0" />
            <waypoint pitch="0.0" roll="0.0" x="178.01194763183594" y="192.091064453125" yaw="-0.046491142362356186" z="0.0" />
            <waypoint pitch="0.0" roll="0.0" x="193.54002380371094" y="177.56105041503906" yaw="-90.00971221923828" z="0.0" />
            <waypoint pitch="0.0" roll="0.0" x="193.54002380371094" y="147.56105041503906" yaw="-90.00971221923828" z="0.0" />
        </ego_vehicle>
    </route>
    <route id="1">
        <ego_vehicle id="hero">
            <waypoint pitch="0.0" roll="0.0" x="148.01194763183594" y="192.091064453125" yaw="-0.046491142362356186" z="0.0" />
            <waypoint pitch="0.0" roll="0.0" x="178.01194763183594" y="192.091064453125" yaw="-0.046491142362356186" z="0.0" />
            <waypoint pitch="360.0" roll="0.0" x="189.54441833496094" y="203.4066619873047" yaw="89.99028778076172" z="0.0" />
            <waypoint pitch="360.0" roll="0.0" x="189.54441833496094" y="233.4066619873047" yaw="89.99028778076172" z="0.0" />
        </ego_vehicle>
    </route>
    <route id="2">
        <ego_vehicle id="hero">
            <waypoint pitch="360.0" roll="0.0" x="189.5395965576172" y="145.0299835205078" yaw="89.99028778076172" z="0.0" />
            <waypoint pitch="360.0" roll="0.0" x="189.5395965576172" y="175.0299835205078" yaw="89.99028778076172" z="0.0" />
            <waypoint pitch="360.0" roll="0.0" x="189.54441833496094" y="203.4066619873047" yaw="89.99028778076172" z="0.0" />
            <waypoint pitch="360.0" roll="0.0" x="189.54441833496094" y="233.4066619873047" yaw="89.99028778076172" z="0.0" />
        </ego_vehicle>
    </route>
    <route id="3">
        <ego_vehicle id="hero">
            <waypoint pitch="360.0" roll="0.0" x="189.5395965576172" y="145.0299835205078" yaw="89.99028778076172" z="0.0" />
            <waypoint pitch="360.0" roll="0.0" x="189.5395965576172" y="175.0299835205078" yaw="89.99028778076172" z="0.0" />
            <waypoint pitch="360.0" roll="0.0" x="150.44764709472656" y="188.11343383789062" yaw="179.95350646972656" z="0.0" />
            <waypoint pitch="360.0" roll="0.0" x="138.44764709472656" y="188.11343383789062" yaw="179.95350646972656" z="0.0" />
        </ego_vehicle>
    </route>
    <route id="4">
        <ego_vehicle id="hero">
            <waypoint pitch="0.0" roll="0.0" x="193.54443359375" y="233.47640991210938" yaw="-90.00971221923828" z="0.0" />
            <waypoint pitch="0.0" roll="0.0" x="193.54443359375" y="203.47640991210938" yaw="-90.00971221923828" z="0.0" />
            <waypoint pitch="0.0" roll="0.0" x="193.54002380371094" y="177.56105041503906" yaw="-90.00971221923828" z="0.0" />
            <waypoint pitch="0.0" roll="0.0" x="193.54002380371094" y="147.56105041503906" yaw="-90.00971221923828" z="0.0" />
        </ego_vehicle>
    </route>
    <route id="5">
        <ego_vehicle id="hero">
            <waypoint pitch="0.0" roll="0.0" x="193.54443359375" y="233.47640991210938" yaw="-90.00971221923828" z="0.0" />
            <waypoint pitch="0.0" roll="0.0" x="193.54443359375" y="203.47640991210938" yaw="-90.00971221923828" z="0.0" />
            <waypoint pitch="360.0" roll="0.0" x="150.44764709472656" y="188.11343383789062" yaw="179.95350646972656" z="0.0" />
            <waypoint pitch="360.0" roll="0.0" x="148.44764709472656" y="188.11343383789062" yaw="179.95350646972656" z="0.0" />
        </ego_vehicle>
    </route>
    <route id="6">
        <ego_vehicle id="hero">
            <waypoint pitch="0.0" roll="0.0" x="136.08560180664062" y="232.26036071777344" yaw="-89.83850860595703" z="0.0" />
            <waypoint pitch="0.0" roll="0.0" x="136.08560180664062" y="202.26036071777344" yaw="-89.83850860595703" z="0.0" />
            <waypoint pitch="360.0" roll="0.0" x="121.87174987792969" y="188.13662719726562" yaw="179.95350646972656" z="0.0" />
            <waypoint pitch="360.0" roll="0.0" x="91.87174987792969" y="188.13662719726562" yaw="179.95350646972656" z="0.0" />
        </ego_vehicle>
    </route>
    <route id="7">
        <ego_vehicle id="hero">
            <waypoint pitch="0.0" roll="0.0" x="136.08560180664062" y="232.26036071777344" yaw="-89.83850860595703" z="0.0" />
            <waypoint pitch="0.0" roll="0.0" x="136.08560180664062" y="202.26036071777344" yaw="-89.83850860595703" z="0.0" />
            <waypoint pitch="0.0" roll="0.0" x="146.19561767578125" y="192.11688232421875" yaw="-0.046491142362356186" z="0.0" />
            <waypoint pitch="0.0" roll="0.0" x="176.19561767578125" y="192.11688232421875" yaw="-0.046491142362356186" z="0.0" />
        </ego_vehicle>
    </route>
    <route id="8">
        <ego_vehicle id="hero">
            <waypoint pitch="0.0" roll="0.0" x="91.87174987792969" y="192.1890869140625" yaw="-0.046491142362356186" z="0.0" />
            <waypoint pitch="0.0" roll="0.0" x="121.87174987792969" y="192.1890869140625" yaw="-0.046491142362356186" z="0.0" />
            <waypoint pitch="0.0" roll="0.0" x="146.19561767578125" y="192.11688232421875" yaw="-0.046491142362356186" z="0.0" />
            <waypoint pitch="0.0" roll="0.0" x="176.19561767578125" y="192.11688232421875" yaw="-0.046491142362356186" z="0.0" />
        </ego_vehicle>
    </route>
    <route id="9">
        <ego_vehicle id="hero">
            <waypoint pitch="0.0" roll="0.0" x="91.87174987792969" y="192.1890869140625" yaw="-0.046491142362356186" z="0.0" />
            <waypoint pitch="0.0" roll="0.0" x="121.87174987792969" y="192.1890869140625" yaw="-0.046491142362356186" z="0.0" />
            <waypoint pitch="360.0" roll="0.0" x="132.08602905273438" y="202.11294555664062" yaw="90.16149139404297" z="0.0" />
            <waypoint pitch="360.0" roll="0.0" x="132.08602905273438" y="232.11294555664062" yaw="90.16149139404297" z="0.0" />
        </ego_vehicle>
    </route>
    <route id="10">
        <ego_vehicle id="hero">
            <waypoint pitch="360.0" roll="0.0" x="177.9085693359375" y="188.11549377441406" yaw="179.95350646972656" z="0.0" />
            <waypoint pitch="360.0" roll="0.0" x="147.9085693359375" y="188.11549377441406" yaw="179.95350646972656" z="0.0" />
            <waypoint pitch="360.0" roll="0.0" x="121.87174987792969" y="188.13662719726562" yaw="179.95350646972656" z="0.0" />
            <waypoint pitch="360.0" roll="0.0" x="9.87174987792969" y="188.13662719726562" yaw="179.95350646972656" z="0.0" />
        </ego_vehicle>
    </route>
    <route id="11">
        <ego_vehicle id="hero">
            <waypoint pitch="360.0" roll="0.0" x="177.9085693359375" y="188.11549377441406" yaw="179.95350646972656" z="0.0" />
            <waypoint pitch="360.0" roll="0.0" x="147.9085693359375" y="188.11549377441406" yaw="179.95350646972656" z="0.0" />
            <waypoint pitch="360.0" roll="0.0" x="132.08602905273438" y="202.11294555664062" yaw="90.16149139404297" z="0.0" />
            <waypoint pitch="360.0" roll="0.0" x="132.08602905273438" y="232.11294555664062" yaw="90.16149139404297" z="0.0" />
        </ego_vehicle>
    </route>
    <route id="12">
        <ego_vehicle id="hero">
            <waypoint pitch="0.0" roll="0.0" x="45.70420455932617" y="233.19808959960938" yaw="-89.97502136230469" z="0.0" />
            <waypoint pitch="0.0" roll="0.0" x="45.70420455932617" y="203.19808959960938" yaw="-89.97502136230469" z="0.0" />
            <waypoint pitch="360.0" roll="0.0" x="8.851332664489746" y="188.22833251953125" yaw="179.95350646972656" z="0.0" />
            <waypoint pitch="360.0" roll="0.0" x="0.851332664489746" y="188.22833251953125" yaw="179.95350646972656" z="0.0" />
        </ego_vehicle>
    </route>
    <route id="13">
        <ego_vehicle id="hero">
            <waypoint pitch="0.0" roll="0.0" x="45.70420455932617" y="233.19808959960938" yaw="-89.97502136230469" z="0.0" />
            <waypoint pitch="0.0" roll="0.0" x="45.70420455932617" y="203.19808959960938" yaw="-89.97502136230469" z="0.0" />
            <waypoint pitch="0.0" roll="0.0" x="57.2266731262207" y="192.1890869140625" yaw="-0.046491142362356186" z="0.0" />
            <waypoint pitch="0.0" roll="0.0" x="87.2266731262207" y="192.1890869140625" yaw="-0.046491142362356186" z="0.0" />
        </ego_vehicle>
    </route>
    <route id="14">
        <ego_vehicle id="hero">
            <waypoint pitch="0.0" roll="0.0" x="0.93472671508789" y="192.20960998535156" yaw="-0.046491142362356186" z="0.0" />
            <waypoint pitch="0.0" roll="0.0" x="31.93472671508789" y="192.20960998535156" yaw="-0.046491142362356186" z="0.0" />
            <waypoint pitch="0.0" roll="0.0" x="57.2266731262207" y="192.1890869140625" yaw="-0.046491142362356186" z="0.0" />
            <waypoint pitch="0.0" roll="0.0" x="87.2266731262207" y="192.1890869140625" yaw="-0.046491142362356186" z="0.0" />
        </ego_vehicle>
    </route>
    <route id="15">
        <ego_vehicle id="hero">
            <waypoint pitch="0.0" roll="0.0" x="0.93472671508789" y="192.20960998535156" yaw="-0.046491142362356186" z="0.0" />
            <waypoint pitch="0.0" roll="0.0" x="31.93472671508789" y="192.20960998535156" yaw="-0.046491142362356186" z="0.0" />
            <waypoint pitch="360.0" roll="0.0" x="41.70449447631836" y="202.53211975097656" yaw="90.02497863769531" z="0.0" />
            <waypoint pitch="360.0" roll="0.0" x="41.70449447631836" y="232.53211975097656" yaw="90.02497863769531" z="0.0" />
        </ego_vehicle>
    </route>
    <route id="16">
        <ego_vehicle id="hero">
            <waypoint pitch="360.0" roll="0.0" x="88.4655876159668" y="188.18807983398438" yaw="179.95350646972656" z="0.0" />
            <waypoint pitch="360.0" roll="0.0" x="58.4655876159668" y="188.18807983398438" yaw="179.95350646972656" z="0.0" />
            <waypoint pitch="360.0" roll="0.0" x="8.851332664489746" y="188.22833251953125" yaw="179.95350646972656" z="0.0" />
            <waypoint pitch="360.0" roll="0.0" x="0.851332664489746" y="188.22833251953125" yaw="179.95350646972656" z="0.0" />
        </ego_vehicle>
    </route>
    <route id="17">
        <ego_vehicle id="hero">
            <waypoint pitch="360.0" roll="0.0" x="88.4655876159668" y="188.18807983398438" yaw="179.95350646972656" z="0.0" />
            <waypoint pitch="360.0" roll="0.0" x="58.4655876159668" y="188.18807983398438" yaw="179.95350646972656" z="0.0" />
            <waypoint pitch="360.0" roll="0.0" x="41.70449447631836" y="202.53211975097656" yaw="90.02497863769531" z="0.0" />
            <waypoint pitch="360.0" roll="0.0" x="41.70449447631836" y="232.53211975097656" yaw="90.02497863769531" z="0.0" />
        </ego_vehicle>
    </route>
    <route id="18">
        <ego_vehicle id="hero">
            <waypoint pitch="360.0" roll="0.0" x="38.851332664489746" y="188.22833251953125" yaw="179.95350646972656" z="0.0" />
            <waypoint pitch="360.0" roll="0.0" x="8.851332664489746" y="188.22833251953125" yaw="179.95350646972656" z="0.0" />
            <waypoint pitch="360.0" roll="0.0" x="-7.667158603668213" y="204.54019165039062" yaw="89.93208312988281" z="0.0" />
            <waypoint pitch="360.0" roll="0.0" x="-7.667158603668213" y="234.54019165039062" yaw="89.93208312988281" z="0.0" />
        </ego_vehicle>
    </route>
    <route id="19">
        <ego_vehicle id="hero">
            <waypoint pitch="360.0" roll="0.0" x="38.851332664489746" y="188.22833251953125" yaw="179.95350646972656" z="0.0" />
            <waypoint pitch="360.0" roll="0.0" x="8.851332664489746" y="188.22833251953125" yaw="179.95350646972656" z="0.0" />
            <waypoint pitch="0.0" roll="0.0" x="-3.738391876220703" y="144.44424438476562" yaw="-90.06791687011719" z="0.0" />
            <waypoint pitch="0.0" roll="0.0" x="-3.738391876220703" y="114.44424438476562" yaw="-90.06791687011719" z="0.0" />
        </ego_vehicle>
    </route>
    <route id="20">
        <ego_vehicle id="hero">
            <waypoint pitch="0.0" roll="0.0" x="-3.567107677459717" y="220.9425048828125" yaw="-90.06791687011719" z="0.0" />
            <waypoint pitch="0.0" roll="0.0" x="-3.567107677459717" y="210.9425048828125" yaw="-90.06791687011719" z="0.0" />
            <waypoint pitch="0.0" roll="0.0" x="-3.738391876220703" y="144.44424438476562" yaw="-90.06791687011719" z="0.0" />
            <waypoint pitch="0.0" roll="0.0" x="-3.738391876220703" y="134.44424438476562" yaw="-90.06791687011719" z="0.0" />
        </ego_vehicle>
    </route>
    <route id="21">
        <ego_vehicle id="hero">
            <waypoint pitch="0.0" roll="0.0" x="-3.567107677459717" y="240.9425048828125" yaw="-90.06791687011719" z="0.0" />
            <waypoint pitch="0.0" roll="0.0" x="-3.567107677459717" y="210.9425048828125" yaw="-90.06791687011719" z="0.0" />
            <waypoint pitch="0.0" roll="0.0" x="7.700477123260498" y="192.22926330566406" yaw="-0.046491142362356186" z="0.0" />
            <waypoint pitch="0.0" roll="0.0" x="37.700477123260498" y="192.22926330566406" yaw="-0.046491142362356186" z="0.0" />
        </ego_vehicle>
    </route>
    <route id="22">
        <ego_vehicle id="hero">
            <waypoint pitch="360.0" roll="0.0" x="-7.701048374176025" y="145.94989013671875" yaw="89.93208312988281" z="0.0" />
            <waypoint pitch="360.0" roll="0.0" x="-7.701048374176025" y="175.94989013671875" yaw="89.93208312988281" z="0.0" />
            <waypoint pitch="360.0" roll="0.0" x="-7.667158603668213" y="204.54019165039062" yaw="89.93208312988281" z="0.0" />
            <waypoint pitch="360.0" roll="0.0" x="-7.667158603668213" y="234.54019165039062" yaw="89.93208312988281" z="0.0" />
        </ego_vehicle>
    </route>
    <route id="23">
        <ego_vehicle id="hero">
            <waypoint pitch="360.0" roll="0.0" x="-7.701048374176025" y="145.94989013671875" yaw="89.93208312988281" z="0.0" />
            <waypoint pitch="360.0" roll="0.0" x="-7.701048374176025" y="175.94989013671875" yaw="89.93208312988281" z="0.0" />
            <waypoint pitch="0.0" roll="0.0" x="7.700477123260498" y="192.22926330566406" yaw="-0.046491142362356186" z="0.0" />
            <waypoint pitch="0.0" roll="0.0" x="37.700477123260498" y="192.22926330566406" yaw="-0.046491142362356186" z="0.0" />
        </ego_vehicle>
    </route>
    <route id="24">
        <ego_vehicle id="hero">
            <waypoint pitch="360.0" roll="0.0" x="147.82032775878906" y="241.33242797851562" yaw="0.1973114013671875" z="0.0" />
            <waypoint pitch="360.0" roll="0.0" x="177.82032775878906" y="241.33242797851562" yaw="0.1973114013671875" z="0.0" />
            <waypoint pitch="0.0" roll="0.0" x="193.54443359375" y="223.47640991210938" yaw="-90.00971221923828" z="0.0" />
            <waypoint pitch="0.0" roll="0.0" x="193.54443359375" y="203.47640991210938" yaw="-90.00971221923828" z="0.0" />
        </ego_vehicle>
    </route>
    <route id="25">
        <ego_vehicle id="hero">
            <waypoint pitch="360.0" roll="0.0" x="147.82032775878906" y="241.33242797851562" yaw="0.1973114013671875" z="0.0" />
            <waypoint pitch="360.0" roll="0.0" x="177.82032775878906" y="241.33242797851562" yaw="0.1973114013671875" z="0.0" />
            <waypoint pitch="360.0" roll="0.0" x="189.55259704589844" y="251.75140380859375" yaw="89.99021911621094" z="0.0" />
            <waypoint pitch="360.0" roll="0.0" x="189.55259704589844" y="281.75140380859375" yaw="89.99021911621094" z="0.0" />
        </ego_vehicle>
    </route>
    <route id="26">
        <ego_vehicle id="hero">
            <waypoint pitch="360.0" roll="0.0" x="189.54820251464844" y="195.80416870117188" yaw="89.99028778076172" z="0.0" />
            <waypoint pitch="360.0" roll="0.0" x="189.54820251464844" y="225.80416870117188" yaw="89.99028778076172" z="0.0" />
            <waypoint pitch="360.0" roll="0.0" x="189.55259704589844" y="251.75140380859375" yaw="89.99021911621094" z="0.0" />
            <waypoint pitch="360.0" roll="0.0" x="189.55259704589844" y="281.75140380859375" yaw="89.99021911621094" z="0.0" />
        </ego_vehicle>
    </route>
    <route id="27">
        <ego_vehicle id="hero">
            <waypoint pitch="360.0" roll="0.0" x="189.54820251464844" y="195.80416870117188" yaw="89.99028778076172" z="0.0" />
            <waypoint pitch="360.0" roll="0.0" x="189.54820251464844" y="225.80416870117188" yaw="89.99028778076172" z="0.0" />
            <waypoint pitch="0.0" roll="0.0" x="177.37710571289062" y="237.3308868408203" yaw="-179.8026885986328" z="0.0" />
            <waypoint pitch="0.0" roll="0.0" x="147.37710571289062" y="237.3308868408203" yaw="-179.8026885986328" z="0.0" />
        </ego_vehicle>
    </route>
    <route id="28">
        <ego_vehicle id="hero">
            <waypoint pitch="0.0" roll="0.0" x="193.5528564453125" y="283.2315216064453" yaw="-90.00978088378906" z="0.0" />
            <waypoint pitch="0.0" roll="0.0" x="193.5528564453125" y="253.2315216064453" yaw="-90.00978088378906" z="0.0" />
            <waypoint pitch="0.0" roll="0.0" x="193.54443359375" y="223.47640991210938" yaw="-90.00971221923828" z="0.0" />
            <waypoint pitch="0.0" roll="0.0" x="193.54443359375" y="203.47640991210938" yaw="-90.00971221923828" z="0.0" />
        </ego_vehicle>
    </route>
    <route id="29">
        <ego_vehicle id="hero">
            <waypoint pitch="0.0" roll="0.0" x="193.5528564453125" y="283.2315216064453" yaw="-90.00978088378906" z="0.0" />
            <waypoint pitch="0.0" roll="0.0" x="193.5528564453125" y="253.2315216064453" yaw="-90.00978088378906" z="0.0" />
            <waypoint pitch="0.0" roll="0.0" x="177.37710571289062" y="237.3308868408203" yaw="-179.8026885986328" z="0.0" />
            <waypoint pitch="0.0" roll="0.0" x="147.37710571289062" y="237.3308868408203" yaw="-179.8026885986328" z="0.0" />
        </ego_vehicle>
    </route>
    <route id="30">
        <ego_vehicle id="hero">
            <waypoint pitch="360.0" roll="0.0" x="132.0171356201172" y="206.55282592773438" yaw="90.16149139404297" z="0.0" />
            <waypoint pitch="360.0" roll="0.0" x="132.0171356201172" y="226.55282592773438" yaw="90.16149139404297" z="0.0" />
            <waypoint pitch="360.0" roll="0.0" x="146.93177795410156" y="241.22605895996094" yaw="0.1973114013671875" z="0.0" />
            <waypoint pitch="360.0" roll="0.0" x="176.93177795410156" y="241.22605895996094" yaw="0.1973114013671875" z="0.0" />
        </ego_vehicle>
    </route>
    <route id="31">
        <ego_vehicle id="hero">
            <waypoint pitch="360.0" roll="0.0" x="132.0171356201172" y="196.55282592773438" yaw="90.16149139404297" z="0.0" />
            <waypoint pitch="360.0" roll="0.0" x="132.0171356201172" y="226.55282592773438" yaw="90.16149139404297" z="0.0" />
            <waypoint pitch="0.0" roll="0.0" x="121.13550567626953" y="237.13720703125" yaw="-179.8026885986328" z="0.0" />
            <waypoint pitch="0.0" roll="0.0" x="91.13550567626953" y="237.13720703125" yaw="-179.8026885986328" z="0.0" />
        </ego_vehicle>
    </route>
    <route id="32">
        <ego_vehicle id="hero">
            <waypoint pitch="0.0" roll="0.0" x="177.47935485839844" y="237.22792053222656" yaw="-179.8026885986328" z="0.0" />
            <waypoint pitch="0.0" roll="0.0" x="147.47935485839844" y="237.22792053222656" yaw="-179.8026885986328" z="0.0" />
            <waypoint pitch="0.0" roll="0.0" x="121.13550567626953" y="237.13720703125" yaw="-179.8026885986328" z="0.0" />
            <waypoint pitch="0.0" roll="0.0" x="91.13550567626953" y="237.13720703125" yaw="-179.8026885986328" z="0.0" />
        </ego_vehicle>
    </route>
    <route id="33">
        <ego_vehicle id="hero">
            <waypoint pitch="0.0" roll="0.0" x="177.47935485839844" y="237.22792053222656" yaw="-179.8026885986328" z="0.0" />
            <waypoint pitch="0.0" roll="0.0" x="147.47935485839844" y="237.22792053222656" yaw="-179.8026885986328" z="0.0" />
            <waypoint pitch="0.0" roll="0.0" x="136.01722717285156" y="226.52333068847656" yaw="-89.83850860595703" z="0.0" />
            <waypoint pitch="0.0" roll="0.0" x="136.01722717285156" y="196.52333068847656" yaw="-89.83850860595703" z="0.0" />
        </ego_vehicle>
    </route>
    <route id="34">
        <ego_vehicle id="hero">
            <waypoint pitch="360.0" roll="0.0" x="89.44264221191406" y="241.1313934326172" yaw="0.1973114013671875" z="0.0" />
            <waypoint pitch="360.0" roll="0.0" x="119.44264221191406" y="241.1313934326172" yaw="0.1973114013671875" z="0.0" />
            <waypoint pitch="360.0" roll="0.0" x="146.93177795410156" y="241.22605895996094" yaw="0.1973114013671875" z="0.0" />
            <waypoint pitch="360.0" roll="0.0" x="176.93177795410156" y="241.22605895996094" yaw="0.1973114013671875" z="0.0" />
        </ego_vehicle>
    </route>
    <route id="35">
        <ego_vehicle id="hero">
            <waypoint pitch="360.0" roll="0.0" x="89.44264221191406" y="241.1313934326172" yaw="0.1973114013671875" z="0.0" />
            <waypoint pitch="360.0" roll="0.0" x="119.44264221191406" y="241.1313934326172" yaw="0.1973114013671875" z="0.0" />
            <waypoint pitch="0.0" roll="0.0" x="136.01722717285156" y="226.52333068847656" yaw="-89.83850860595703" z="0.0" />
            <waypoint pitch="0.0" roll="0.0" x="136.01722717285156" y="196.52333068847656" yaw="-89.83850860595703" z="0.0" />
        </ego_vehicle>
    </route>
    <route id="36">
        <ego_vehicle id="hero">
            <waypoint pitch="0.0" roll="0.0" x="88.52439498901367" y="236.9215850830078" yaw="-179.8026885986328" z="0.0" />
            <waypoint pitch="0.0" roll="0.0" x="58.52439498901367" y="236.9215850830078" yaw="-179.8026885986328" z="0.0" />
            <waypoint pitch="360.0" roll="0.0" x="41.66613006591797" y="255.5375671386719" yaw="90.02497863769531" z="0.0" />
            <waypoint pitch="360.0" roll="0.0" x="41.66613006591797" y="285.5375671386719" yaw="90.02497863769531" z="0.0" />
        </ego_vehicle>
    </route>
    <route id="37">
        <ego_vehicle id="hero">
            <waypoint pitch="0.0" roll="0.0" x="88.52439498901367" y="236.9215850830078" yaw="-179.8026885986328" z="0.0" />
            <waypoint pitch="0.0" roll="0.0" x="58.52439498901367" y="236.9215850830078" yaw="-179.8026885986328" z="0.0" />
            <waypoint pitch="0.0" roll="0.0" x="45.694637298583984" y="225.14109802246094" yaw="-89.97502136230469" z="0.0" />
            <waypoint pitch="0.0" roll="0.0" x="45.694637298583984" y="195.14109802246094" yaw="-89.97502136230469" z="0.0" />
        </ego_vehicle>
    </route>
    <route id="38">
        <ego_vehicle id="hero">
            <waypoint pitch="0.0" roll="0.0" x="45.694637298583984" y="285.5375671386719" yaw="-89.97502136230469" z="0.0" />
            <waypoint pitch="0.0" roll="0.0" x="45.694637298583984" y="255.5375671386719" yaw="-89.97502136230469" z="0.0" />
            <waypoint pitch="0.0" roll="0.0" x="45.694637298583984" y="225.14109802246094" yaw="-89.97502136230469" z="0.0" />
            <waypoint pitch="0.0" roll="0.0" x="45.694637298583984" y="195.14109802246094" yaw="-89.97502136230469" z="0.0" />
        </ego_vehicle>
    </route>
    <route id="39">
        <ego_vehicle id="hero">
            <waypoint pitch="0.0" roll="0.0" x="45.694637298583984" y="285.5375671386719" yaw="-89.97502136230469" z="0.0" />
            <waypoint pitch="0.0" roll="0.0" x="45.694637298583984" y="255.5375671386719" yaw="-89.97502136230469" z="0.0" />
            <waypoint pitch="360.0" roll="0.0" x="58.090850830078125" y="240.9201202392578" yaw="0.1973114013671875" z="0.0" />
            <waypoint pitch="360.0" roll="0.0" x="88.090850830078125" y="240.9201202392578" yaw="0.1973114013671875" z="0.0" />
        </ego_vehicle>
    </route>
    <route id="40">
        <ego_vehicle id="hero">
            <waypoint pitch="360.0" roll="0.0" x="41.695037841796875" y="194.2197723388672" yaw="90.02497863769531" z="0.0" />
            <waypoint pitch="360.0" roll="0.0" x="41.695037841796875" y="224.2197723388672" yaw="90.02497863769531" z="0.0" />
            <waypoint pitch="360.0" roll="0.0" x="41.66613006591797" y="255.5375671386719" yaw="90.02497863769531" z="0.0" />
            <waypoint pitch="360.0" roll="0.0" x="41.66613006591797" y="285.5375671386719" yaw="90.02497863769531" z="0.0" />
        </ego_vehicle>
    </route>
    <route id="41">
        <ego_vehicle id="hero">
            <waypoint pitch="360.0" roll="0.0" x="41.695037841796875" y="194.2197723388672" yaw="90.02497863769531" z="0.0" />
            <waypoint pitch="360.0" roll="0.0" x="41.695037841796875" y="224.2197723388672" yaw="90.02497863769531" z="0.0" />
            <waypoint pitch="360.0" roll="0.0" x="58.090850830078125" y="240.9201202392578" yaw="0.1973114013671875" z="0.0" />
            <waypoint pitch="360.0" roll="0.0" x="88.090850830078125" y="240.9201202392578" yaw="0.1973114013671875" z="0.0" />
        </ego_vehicle>
    </route>
    <route id="42">
        <ego_vehicle id="hero">
            <waypoint pitch="360.0" roll="0.0" x="41.66613006591797" y="260.5375671386719" yaw="90.02497863769531" z="0.0" />
            <waypoint pitch="360.0" roll="0.0" x="41.66613006591797" y="290.5375671386719" yaw="90.02497863769531" z="0.0" />
            <waypoint pitch="0.0" roll="0.0" x="57.2176628112793" y="306.9637756347656" yaw="0.025878889486193657" z="0.0" />
            <waypoint pitch="0.0" roll="0.0" x="87.2176628112793" y="306.9637756347656" yaw="0.025878889486193657" z="0.0" />
        </ego_vehicle>
    </route>
    <route id="43">
        <ego_vehicle id="hero">
            <waypoint pitch="360.0" roll="0.0" x="41.66613006591797" y="260.5375671386719" yaw="90.02497863769531" z="0.0" />
            <waypoint pitch="360.0" roll="0.0" x="41.66613006591797" y="290.5375671386719" yaw="90.02497863769531" z="0.0" />
            <waypoint pitch="360.0" roll="0.0" x="33.00594711303711" y="302.952880859375" yaw="180.0257568359375" z="0.0" />
            <waypoint pitch="360.0" roll="0.0" x="3.00594711303711" y="302.952880859375" yaw="180.0257568359375" z="0.0" />
        </ego_vehicle>
    </route>
    <route id="44">
        <ego_vehicle id="hero">
            <waypoint pitch="360.0" roll="0.0" x="87.2176628112793" y="303.0173645019531" yaw="180.0260009765625" z="0.0" />
            <waypoint pitch="360.0" roll="0.0" x="57.2176628112793" y="303.0173645019531" yaw="180.0260009765625" z="0.0" />
            <waypoint pitch="360.0" roll="0.0" x="33.00594711303711" y="302.952880859375" yaw="180.0257568359375" z="0.0" />
            <waypoint pitch="360.0" roll="0.0" x="0.00594711303711" y="302.952880859375" yaw="180.0257568359375" z="0.0" />
        </ego_vehicle>
    </route>
    <route id="45">
        <ego_vehicle id="hero">
            <waypoint pitch="360.0" roll="0.0" x="87.2176628112793" y="303.0173645019531" yaw="180.0260009765625" z="0.0" />
            <waypoint pitch="360.0" roll="0.0" x="57.2176628112793" y="303.0173645019531" yaw="180.0260009765625" z="0.0" />
            <waypoint pitch="360.0" roll="0.0" x="45.694637298583984" y="290.5375671386719" yaw="-89.97502136230469" z="0.0" />
            <waypoint pitch="360.0" roll="0.0" x="45.694637298583984" y="260.5375671386719" yaw="-89.97502136230469" z="0.0" />
        </ego_vehicle>
    </route>
    <route id="46">
        <ego_vehicle id="hero">
            <waypoint pitch="0.0" roll="0.0" x="0.00594711303711" y="306.9418640136719" yaw="0.025754474103450775" z="0.0" />
            <waypoint pitch="0.0" roll="0.0" x="33.00594711303711" y="306.9418640136719" yaw="0.025754474103450775" z="0.0" />
            <waypoint pitch="0.0" roll="0.0" x="57.2176628112793" y="306.9637756347656" yaw="0.025878889486193657" z="0.0" />
            <waypoint pitch="0.0" roll="0.0" x="87.2176628112793" y="306.9637756347656" yaw="0.025878889486193657" z="0.0" />
        </ego_vehicle>
    </route>
    <route id="47">
        <ego_vehicle id="hero">
            <waypoint pitch="0.0" roll="0.0" x="0.00594711303711" y="306.9418640136719" yaw="0.025754474103450775" z="0.0" />
            <waypoint pitch="0.0" roll="0.0" x="33.00594711303711" y="306.9418640136719" yaw="0.025754474103450775" z="0.0" />
            <waypoint pitch="360.0" roll="0.0" x="45.694637298583984" y="290.5375671386719" yaw="-89.97502136230469" z="0.0" />
            <waypoint pitch="360.0" roll="0.0" x="45.694637298583984" y="260.5375671386719" yaw="-89.97502136230469" z="0.0" />
        </ego_vehicle>
    </route>
</routes>